LAMMPS (23 Jun 2022 - Update 4)
# main parameters
units real
dimension 3
atom_style atomic
pair_style lj/cut 12
boundary p p p

#read_data twoparticle.data
region myreg block -6 6 -6 6 -6 6
create_box 1 myreg
Created orthogonal box = (-6 -6 -6) to (6 6 6)
create_atoms 1 random 20 14141 myreg
Created 20 atoms

mass 1 1
pair_coeff 1 1 0.1 1.0
neigh_modify every 1

velocity all create 300 4928459
fix mynve all nve
fix myber all temp/berendsen 300 300 100
timestep 1

thermo 10
dump mydmp all atom 10 dump.lammpstrj

variable Epot equal pe
variable Ekin equal ke
variable pressure equal press
variable temperature equal temp
fix myat1 all ave/time 10 1 10 v_Epot file Epot.dat
fix myat2 all ave/time 10 1 10 v_Ekin file Ekin.dat
fix myat3 all ave/time 10 1 10 v_pressure file pressure.dat
fix myat4 all ave/time 10 1 10 v_temperature file temperature.dat
run 50000
Generated 0 of 0 mixed pair_coeff terms from geometric mixing rule
  update every 1 steps, delay 10 steps, check yes
Step          Temp          E_pair         E_mol          TotEng         Press
0   300           -0.24481976     0              16.745798      432.25407
Averages over the last 2501 of 5001 rows, steps 25000 to 50000:
Temp E_pair E_mol TotEng Press
299.995 -0.109942 0 16.8804 453.764
Loop time of 0.574002 on 1 procs for 50000 steps with 20 atoms
